MODEL 1
REMARK VINA RESULT:      -0.0      0.000      0.000
REMARK SMILES CC[C@H](CO)Nc1nc(NCc2ccccc2)c2ncn(C(C)C)c2n1
REMARK SMILES IDX 21 1 26 2 19 3 8 4 25 5 18 6 9 7 7 8 20 9 6 10 3 12 4 13
REMARK SMILES IDX 5 14 2 16 1 17 10 18 11 20 12 21 13 22 17 23 14 24 16 25
REMARK SMILES IDX 15 26 22 27 23 28 24 29
REMARK H PARENT 6 11 5 15 10 19
REMARK Flexibility Score: inf
ROOT
ATOM      1  N   UNL     1       4.982  -1.622   0.479  1.00  0.00    -0.313 N 
ATOM      2  N   UNL     1       4.418  -1.035   2.110  1.00  0.00    -0.193 NA
ATOM      3  N   UNL     1       6.031  -2.705   1.040  1.00  0.00    -0.231 NA
ATOM      4  N   UNL     1       5.188  -1.826   3.444  1.00  0.00    -0.193 NA
ATOM      5  C   UNL     1       4.953  -1.589   1.472  1.00  0.00     0.167 A 
ATOM      6  C   UNL     1       5.605  -2.262   1.821  1.00  0.00     0.150 A 
ATOM      7  C   UNL     1       5.723  -2.381   2.806  1.00  0.00     0.160 A 
ATOM      8  C   UNL     1       4.536  -1.153   3.096  1.00  0.00     0.227 A 
ATOM      9  C   UNL     1       5.647  -2.311   0.212  1.00  0.00     0.202 A 
ENDROOT
BRANCH   8  10
ATOM     10  N   UNL     1       4.001  -0.599   3.733  1.00  0.00    -0.349 N 
ATOM     11  H   UNL     1       4.270  -0.131   4.038  1.00  0.00     0.164 HD
BRANCH  10  12
ATOM     12  C   UNL     1       3.032  -0.799   3.879  1.00  0.00     0.107 C 
BRANCH  12  13
ATOM     13  C   UNL     1       2.762  -1.592   4.424  1.00  0.00     0.180 C 
BRANCH  13  14
ATOM     14  O   UNL     1       2.241  -2.334   4.003  1.00  0.00    -0.394 OA
ATOM     15  H   UNL     1       2.101  -2.841   4.332  1.00  0.00     0.210 HD
ENDBRANCH  13  14
ENDBRANCH  12  13
BRANCH  12  16
ATOM     16  C   UNL     1       2.334  -0.205   3.480  1.00  0.00     0.024 C 
ATOM     17  C   UNL     1       2.010   0.595   3.984  1.00  0.00     0.006 C 
ENDBRANCH  12  16
ENDBRANCH  10  12
ENDBRANCH   8  10
BRANCH   7  18
ATOM     18  N   UNL     1       6.375  -3.054   3.155  1.00  0.00    -0.364 N 
ATOM     19  H   UNL     1       6.870  -3.211   2.815  1.00  0.00     0.162 HD
BRANCH  18  20
ATOM     20  C   UNL     1       6.229  -3.475   4.050  1.00  0.00     0.150 C 
BRANCH  20  21
ATOM     21  C   UNL     1       6.821  -4.221   4.354  1.00  0.00    -0.029 A 
ATOM     22  C   UNL     1       7.709  -4.019   4.767  1.00  0.00     0.005 A 
ATOM     23  C   UNL     1       6.525  -5.170   4.245  1.00  0.00     0.005 A 
ATOM     24  C   UNL     1       8.301  -4.766   5.071  1.00  0.00     0.000 A 
ATOM     25  C   UNL     1       7.117  -5.917   4.549  1.00  0.00     0.000 A 
ATOM     26  C   UNL     1       8.004  -5.715   4.962  1.00  0.00     0.000 A 
ENDBRANCH  20  21
ENDBRANCH  18  20
ENDBRANCH   7  18
BRANCH   1  27
ATOM     27  C   UNL     1       4.436  -1.060  -0.144  1.00  0.00     0.084 C 
ATOM     28  C   UNL     1       3.531  -1.371  -0.435  1.00  0.00     0.031 C 
ATOM     29  C   UNL     1       4.796  -0.188  -0.475  1.00  0.00     0.031 C 
ENDBRANCH   1  27
TORSDOF 9
ENDMDL
MODEL 2
REMARK VINA RESULT:      -0.0      2.922      5.045
REMARK SMILES CC[C@H](CO)Nc1nc(NCc2ccccc2)c2ncn(C(C)C)c2n1
REMARK SMILES IDX 21 1 26 2 19 3 8 4 25 5 18 6 9 7 7 8 20 9 6 10 3 12 4 13
REMARK SMILES IDX 5 14 2 16 1 17 10 18 11 20 12 21 13 22 17 23 14 24 16 25
REMARK SMILES IDX 15 26 22 27 23 28 24 29
REMARK H PARENT 6 11 5 15 10 19
REMARK Flexibility Score: inf
ROOT
ATOM      1  N   UNL     1       7.355  -0.443  -1.023  1.00  0.00    -0.313 N 
ATOM      2  N   UNL     1       7.403  -1.463   0.487  1.00  0.00    -0.193 NA
ATOM      3  N   UNL     1       6.290  -1.354  -1.813  1.00  0.00    -0.231 NA
ATOM      4  N   UNL     1       6.371  -2.852   0.426  1.00  0.00    -0.193 NA
ATOM      5  C   UNL     1       7.111  -1.206  -0.434  1.00  0.00     0.167 A 
ATOM      6  C   UNL     1       6.449  -1.772  -0.925  1.00  0.00     0.150 A 
ATOM      7  C   UNL     1       6.079  -2.596  -0.495  1.00  0.00     0.160 A 
ATOM      8  C   UNL     1       7.032  -2.286   0.917  1.00  0.00     0.227 A 
ATOM      9  C   UNL     1       6.849  -0.535  -1.874  1.00  0.00     0.202 A 
ENDROOT
BRANCH   8  10
ATOM     10  N   UNL     1       7.324  -2.543   1.839  1.00  0.00    -0.349 N 
ATOM     11  H   UNL     1       7.719  -3.015   1.919  1.00  0.00     0.164 HD
BRANCH  10  12
ATOM     12  C   UNL     1       6.980  -2.039   2.631  1.00  0.00     0.107 C 
BRANCH  12  13
ATOM     13  C   UNL     1       6.041  -2.181   2.945  1.00  0.00     0.180 C 
BRANCH  13  14
ATOM     14  O   UNL     1       5.388  -1.425   2.927  1.00  0.00    -0.394 OA
ATOM     15  H   UNL     1       4.859  -1.479   2.609  1.00  0.00     0.210 HD
ENDBRANCH  13  14
ENDBRANCH  12  13
BRANCH  12  16
ATOM     16  C   UNL     1       7.575  -1.392   3.109  1.00  0.00     0.024 C 
ATOM     17  C   UNL     1       8.163  -1.710   3.853  1.00  0.00     0.006 C 
ENDBRANCH  12  16
ENDBRANCH  10  12
ENDBRANCH   8  10
BRANCH   7  18
ATOM     18  N   UNL     1       5.417  -3.162  -0.986  1.00  0.00    -0.364 N 
ATOM     19  H   UNL     1       5.418  -3.173  -1.606  1.00  0.00     0.162 HD
BRANCH  18  20
ATOM     20  C   UNL     1       4.753  -3.710  -0.477  1.00  0.00     0.150 C 
BRANCH  20  21
ATOM     21  C   UNL     1       4.026  -4.194  -0.964  1.00  0.00    -0.029 A 
ATOM     22  C   UNL     1       3.115  -3.788  -1.036  1.00  0.00     0.005 A 
ATOM     23  C   UNL     1       4.210  -5.085  -1.380  1.00  0.00     0.005 A 
ATOM     24  C   UNL     1       2.388  -4.272  -1.523  1.00  0.00     0.000 A 
ATOM     25  C   UNL     1       3.483  -5.569  -1.867  1.00  0.00     0.000 A 
ATOM     26  C   UNL     1       2.572  -5.162  -1.939  1.00  0.00     0.000 A 
ENDBRANCH  20  21
ENDBRANCH  18  20
ENDBRANCH   7  18
BRANCH   1  27
ATOM     27  C   UNL     1       7.999   0.289  -0.799  1.00  0.00     0.084 C 
ATOM     28  C   UNL     1       7.676   1.113  -0.331  1.00  0.00     0.031 C 
ATOM     29  C   UNL     1       8.964   0.198  -1.042  1.00  0.00     0.031 C 
ENDBRANCH   1  27
TORSDOF 9
ENDMDL
MODEL 3
REMARK VINA RESULT:      -0.0      9.923     11.446
REMARK SMILES CC[C@H](CO)Nc1nc(NCc2ccccc2)c2ncn(C(C)C)c2n1
REMARK SMILES IDX 21 1 26 2 19 3 8 4 25 5 18 6 9 7 7 8 20 9 6 10 3 12 4 13
REMARK SMILES IDX 5 14 2 16 1 17 10 18 11 20 12 21 13 22 17 23 14 24 16 25
REMARK SMILES IDX 15 26 22 27 23 28 24 29
REMARK H PARENT 6 11 5 15 10 19
REMARK Flexibility Score: inf
ROOT
ATOM      1  N   UNL     1      -3.067   0.520  -7.660  1.00  0.00    -0.313 N 
ATOM      2  N   UNL     1      -2.999   0.717  -5.850  1.00  0.00    -0.193 NA
ATOM      3  N   UNL     1      -1.475   0.490  -7.890  1.00  0.00    -0.231 NA
ATOM      4  N   UNL     1      -1.390   0.781  -5.212  1.00  0.00    -0.193 NA
ATOM      5  C   UNL     1      -2.629   0.615  -6.773  1.00  0.00     0.167 A 
ATOM      6  C   UNL     1      -1.639   0.597  -6.916  1.00  0.00     0.150 A 
ATOM      7  C   UNL     1      -1.020   0.680  -6.135  1.00  0.00     0.160 A 
ATOM      8  C   UNL     1      -2.380   0.800  -5.069  1.00  0.00     0.227 A 
ATOM      9  C   UNL     1      -2.354   0.443  -8.350  1.00  0.00     0.202 A 
ENDROOT
BRANCH   8  10
ATOM     10  N   UNL     1      -2.750   0.901  -4.146  1.00  0.00    -0.349 N 
ATOM     11  H   UNL     1      -2.733   1.453  -3.864  1.00  0.00     0.164 HD
BRANCH  10  12
ATOM     12  C   UNL     1      -3.149   0.113  -3.677  1.00  0.00     0.107 C 
BRANCH  12  13
ATOM     13  C   UNL     1      -2.555  -0.600  -3.305  1.00  0.00     0.180 C 
BRANCH  13  14
ATOM     14  O   UNL     1      -2.611  -1.533  -3.659  1.00  0.00    -0.394 OA
ATOM     15  H   UNL     1      -2.822  -1.635  -4.233  1.00  0.00     0.210 HD
ENDBRANCH  13  14
ENDBRANCH  12  13
BRANCH  12  16
ATOM     16  C   UNL     1      -4.141   0.037  -3.582  1.00  0.00     0.024 C 
ATOM     17  C   UNL     1      -4.601   0.449  -2.795  1.00  0.00     0.006 C 
ENDBRANCH  12  16
ENDBRANCH  10  12
ENDBRANCH   8  10
BRANCH   7  18
ATOM     18  N   UNL     1      -0.030   0.661  -6.278  1.00  0.00    -0.364 N 
ATOM     19  H   UNL     1       0.209   0.850  -6.818  1.00  0.00     0.162 HD
BRANCH  18  20
ATOM     20  C   UNL     1       0.574   0.338  -5.549  1.00  0.00     0.150 C 
BRANCH  20  21
ATOM     21  C   UNL     1       1.551   0.221  -5.726  1.00  0.00    -0.029 A 
ATOM     22  C   UNL     1       2.166   1.007  -5.675  1.00  0.00     0.005 A 
ATOM     23  C   UNL     1       1.913  -0.683  -5.953  1.00  0.00     0.005 A 
ATOM     24  C   UNL     1       3.143   0.890  -5.851  1.00  0.00     0.000 A 
ATOM     25  C   UNL     1       2.891  -0.801  -6.129  1.00  0.00     0.000 A 
ATOM     26  C   UNL     1       3.506  -0.014  -6.078  1.00  0.00     0.000 A 
ENDBRANCH  20  21
ENDBRANCH  18  20
ENDBRANCH   7  18
BRANCH   1  27
ATOM     27  C   UNL     1      -4.053   0.505  -7.831  1.00  0.00     0.084 C 
ATOM     28  C   UNL     1      -4.552  -0.361  -7.800  1.00  0.00     0.031 C 
ATOM     29  C   UNL     1      -4.538   1.356  -8.032  1.00  0.00     0.031 C 
ENDBRANCH   1  27
TORSDOF 9
ENDMDL
MODEL 4
REMARK VINA RESULT:      -0.0      7.301     10.237
REMARK SMILES CC[C@H](CO)Nc1nc(NCc2ccccc2)c2ncn(C(C)C)c2n1
REMARK SMILES IDX 21 1 26 2 19 3 8 4 25 5 18 6 9 7 7 8 20 9 6 10 3 12 4 13
REMARK SMILES IDX 5 14 2 16 1 17 10 18 11 20 12 21 13 22 17 23 14 24 16 25
REMARK SMILES IDX 15 26 22 27 23 28 24 29
REMARK H PARENT 6 11 5 15 10 19
REMARK Flexibility Score: inf
ROOT
ATOM      1  N   UNL     1      -1.574  -4.007   5.593  1.00  0.00    -0.313 N 
ATOM      2  N   UNL     1      -1.898  -2.224   5.399  1.00  0.00    -0.193 NA
ATOM      3  N   UNL     1      -3.051  -4.397   6.098  1.00  0.00    -0.231 NA
ATOM      4  N   UNL     1      -3.516  -1.758   5.807  1.00  0.00    -0.193 NA
ATOM      5  C   UNL     1      -2.116  -3.175   5.620  1.00  0.00     0.167 A 
ATOM      6  C   UNL     1      -3.035  -3.417   5.933  1.00  0.00     0.150 A 
ATOM      7  C   UNL     1      -3.734  -2.709   6.027  1.00  0.00     0.160 A 
ATOM      8  C   UNL     1      -2.598  -1.516   5.493  1.00  0.00     0.227 A 
ATOM      9  C   UNL     1      -2.150  -4.762   5.889  1.00  0.00     0.202 A 
ENDROOT
BRANCH   8  10
ATOM     10  N   UNL     1      -2.379  -0.565   5.273  1.00  0.00    -0.349 N 
ATOM     11  H   UNL     1      -2.301  -0.152   5.728  1.00  0.00     0.164 HD
BRANCH  10  12
ATOM     12  C   UNL     1      -2.286  -0.282   4.318  1.00  0.00     0.107 C 
BRANCH  12  13
ATOM     13  C   UNL     1      -3.101  -0.160   3.751  1.00  0.00     0.180 C 
BRANCH  13  14
ATOM     14  O   UNL     1      -3.245  -0.744   2.952  1.00  0.00    -0.394 OA
ATOM     15  H   UNL     1      -3.091  -0.540   2.387  1.00  0.00     0.210 HD
ENDBRANCH  13  14
ENDBRANCH  12  13
BRANCH  12  16
ATOM     16  C   UNL     1      -1.379  -0.120   3.931  1.00  0.00     0.024 C 
ATOM     17  C   UNL     1      -0.960   0.786   3.999  1.00  0.00     0.006 C 
ENDBRANCH  12  16
ENDBRANCH  10  12
ENDBRANCH   8  10
BRANCH   7  18
ATOM     18  N   UNL     1      -4.652  -2.951   6.341  1.00  0.00    -0.364 N 
ATOM     19  H   UNL     1      -4.738  -3.459   6.686  1.00  0.00     0.162 HD
BRANCH  18  20
ATOM     20  C   UNL     1      -5.432  -2.375   6.096  1.00  0.00     0.150 C 
BRANCH  20  21
ATOM     21  C   UNL     1      -6.361  -2.672   6.317  1.00  0.00    -0.029 A 
ATOM     22  C   UNL     1      -6.913  -3.143   5.629  1.00  0.00     0.005 A 
ATOM     23  C   UNL     1      -6.739  -2.497   7.227  1.00  0.00     0.005 A 
ATOM     24  C   UNL     1      -7.842  -3.439   5.850  1.00  0.00     0.000 A 
ATOM     25  C   UNL     1      -7.668  -2.793   7.448  1.00  0.00     0.000 A 
ATOM     26  C   UNL     1      -8.220  -3.264   6.760  1.00  0.00     0.000 A 
ENDBRANCH  20  21
ENDBRANCH  18  20
ENDBRANCH   7  18
BRANCH   1  27
ATOM     27  C   UNL     1      -0.614  -4.075   5.318  1.00  0.00     0.084 C 
ATOM     28  C   UNL     1      -0.379  -4.232   4.358  1.00  0.00     0.031 C 
ATOM     29  C   UNL     1       0.110  -3.984   6.002  1.00  0.00     0.031 C 
ENDBRANCH   1  27
TORSDOF 9
ENDMDL
MODEL 5
REMARK VINA RESULT:      -0.0      8.267     11.652
REMARK SMILES CC[C@H](CO)Nc1nc(NCc2ccccc2)c2ncn(C(C)C)c2n1
REMARK SMILES IDX 21 1 26 2 19 3 8 4 25 5 18 6 9 7 7 8 20 9 6 10 3 12 4 13
REMARK SMILES IDX 5 14 2 16 1 17 10 18 11 20 12 21 13 22 17 23 14 24 16 25
REMARK SMILES IDX 15 26 22 27 23 28 24 29
REMARK H PARENT 6 11 5 15 10 19
REMARK Flexibility Score: inf
ROOT
ATOM      1  N   UNL     1       1.069  -5.717  -3.693  1.00  0.00    -0.313 N 
ATOM      2  N   UNL     1       2.295  -6.123  -4.979  1.00  0.00    -0.193 NA
ATOM      3  N   UNL     1       0.373  -4.508  -4.496  1.00  0.00    -0.231 NA
ATOM      4  N   UNL     1       2.192  -5.121  -6.388  1.00  0.00    -0.193 NA
ATOM      5  C   UNL     1       1.533  -5.623  -4.567  1.00  0.00     0.167 A 
ATOM      6  C   UNL     1       1.100  -4.872  -5.066  1.00  0.00     0.150 A 
ATOM      7  C   UNL     1       1.430  -4.621  -5.976  1.00  0.00     0.160 A 
ATOM      8  C   UNL     1       2.624  -5.872  -5.889  1.00  0.00     0.227 A 
ATOM      9  C   UNL     1       0.353  -5.028  -3.649  1.00  0.00     0.202 A 
ENDROOT
BRANCH   8  10
ATOM     10  N   UNL     1       3.387  -6.372  -6.300  1.00  0.00    -0.349 N 
ATOM     11  H   UNL     1       3.948  -6.111  -6.329  1.00  0.00     0.164 HD
BRANCH  10  12
ATOM     12  C   UNL     1       3.242  -7.292  -6.665  1.00  0.00     0.107 C 
BRANCH  12  13
ATOM     13  C   UNL     1       2.761  -7.416  -7.533  1.00  0.00     0.180 C 
BRANCH  13  14
ATOM     14  O   UNL     1       1.894  -7.914  -7.557  1.00  0.00    -0.394 OA
ATOM     15  H   UNL     1       1.358  -7.603  -7.561  1.00  0.00     0.210 HD
ENDBRANCH  13  14
ENDBRANCH  12  13
BRANCH  12  16
ATOM     16  C   UNL     1       3.580  -8.087  -6.162  1.00  0.00     0.024 C 
ATOM     17  C   UNL     1       4.510  -8.419  -6.317  1.00  0.00     0.006 C 
ENDBRANCH  12  16
ENDBRANCH  10  12
ENDBRANCH   8  10
BRANCH   7  18
ATOM     18  N   UNL     1       0.997  -3.870  -6.475  1.00  0.00    -0.364 N 
ATOM     19  H   UNL     1       0.721  -3.410  -6.164  1.00  0.00     0.162 HD
BRANCH  18  20
ATOM     20  C   UNL     1       1.008  -3.862  -7.475  1.00  0.00     0.150 C 
BRANCH  20  21
ATOM     21  C   UNL     1       0.488  -3.169  -7.975  1.00  0.00    -0.029 A 
ATOM     22  C   UNL     1       0.876  -2.258  -8.116  1.00  0.00     0.005 A 
ATOM     23  C   UNL     1      -0.419  -3.387  -8.334  1.00  0.00     0.005 A 
ATOM     24  C   UNL     1       0.356  -1.565  -8.616  1.00  0.00     0.000 A 
ATOM     25  C   UNL     1      -0.939  -2.695  -8.834  1.00  0.00     0.000 A 
ATOM     26  C   UNL     1      -0.551  -1.784  -8.975  1.00  0.00     0.000 A 
ENDBRANCH  20  21
ENDBRANCH  18  20
ENDBRANCH   7  18
BRANCH   1  27
ATOM     27  C   UNL     1       1.285  -6.386  -2.982  1.00  0.00     0.084 C 
ATOM     28  C   UNL     1       0.851  -7.288  -2.995  1.00  0.00     0.031 C 
ATOM     29  C   UNL     1       1.934  -6.154  -2.257  1.00  0.00     0.031 C 
ENDBRANCH   1  27
TORSDOF 9
ENDMDL
MODEL 6
REMARK VINA RESULT:      -0.0      8.919     10.154
REMARK SMILES CC[C@H](CO)Nc1nc(NCc2ccccc2)c2ncn(C(C)C)c2n1
REMARK SMILES IDX 21 1 26 2 19 3 8 4 25 5 18 6 9 7 7 8 20 9 6 10 3 12 4 13
REMARK SMILES IDX 5 14 2 16 1 17 10 18 11 20 12 21 13 22 17 23 14 24 16 25
REMARK SMILES IDX 15 26 22 27 23 28 24 29
REMARK H PARENT 6 11 5 15 10 19
REMARK Flexibility Score: inf
ROOT
ATOM      1  N   UNL     1       0.149   5.045  -4.799  1.00  0.00    -0.313 N 
ATOM      2  N   UNL     1       0.178   3.396  -4.023  1.00  0.00    -0.193 NA
ATOM      3  N   UNL     1       1.732   5.314  -4.689  1.00  0.00    -0.231 NA
ATOM      4  N   UNL     1       1.758   2.875  -3.544  1.00  0.00    -0.193 NA
ATOM      5  C   UNL     1       0.564   4.252  -4.366  1.00  0.00     0.167 A 
ATOM      6  C   UNL     1       1.548   4.419  -4.298  1.00  0.00     0.150 A 
ATOM      7  C   UNL     1       2.145   3.731  -3.887  1.00  0.00     0.160 A 
ATOM      8  C   UNL     1       0.774   2.707  -3.612  1.00  0.00     0.227 A 
ATOM      9  C   UNL     1       0.870   5.701  -4.998  1.00  0.00     0.202 A 
ENDROOT
BRANCH   8  10
ATOM     10  N   UNL     1       0.388   1.851  -3.269  1.00  0.00    -0.349 N 
ATOM     11  H   UNL     1       0.330   1.760  -2.658  1.00  0.00     0.164 HD
BRANCH  10  12
ATOM     12  C   UNL     1       0.094   1.143  -3.910  1.00  0.00     0.107 C 
BRANCH  12  13
ATOM     13  C   UNL     1       0.774   0.580  -4.379  1.00  0.00     0.180 C 
BRANCH  13  14
ATOM     14  O   UNL     1       0.852   0.616  -5.376  1.00  0.00    -0.394 OA
ATOM     15  H   UNL     1       0.343   0.587  -5.728  1.00  0.00     0.210 HD
ENDBRANCH  13  14
ENDBRANCH  12  13
BRANCH  12  16
ATOM     16  C   UNL     1      -0.880   0.998  -4.083  1.00  0.00     0.024 C 
ATOM     17  C   UNL     1      -1.404   0.376  -3.501  1.00  0.00     0.006 C 
ENDBRANCH  12  16
ENDBRANCH  10  12
ENDBRANCH   8  10
BRANCH   7  18
ATOM     18  N   UNL     1       3.128   3.898  -3.818  1.00  0.00    -0.364 N 
ATOM     19  H   UNL     1       3.342   4.479  -3.784  1.00  0.00     0.162 HD
BRANCH  18  20
ATOM     20  C   UNL     1       3.766   3.128  -3.804  1.00  0.00     0.150 C 
BRANCH  20  21
ATOM     21  C   UNL     1       4.752   3.295  -3.840  1.00  0.00    -0.029 A 
ATOM     22  C   UNL     1       5.238   3.236  -4.712  1.00  0.00     0.005 A 
ATOM     23  C   UNL     1       5.251   3.521  -3.004  1.00  0.00     0.005 A 
ATOM     24  C   UNL     1       6.223   3.403  -4.748  1.00  0.00     0.000 A 
ATOM     25  C   UNL     1       6.237   3.688  -3.040  1.00  0.00     0.000 A 
ATOM     26  C   UNL     1       6.722   3.629  -3.912  1.00  0.00     0.000 A 
ENDBRANCH  20  21
ENDBRANCH  18  20
ENDBRANCH   7  18
BRANCH   1  27
ATOM     27  C   UNL     1      -0.824   5.163  -5.000  1.00  0.00     0.084 C 
ATOM     28  C   UNL     1      -1.424   5.598  -4.327  1.00  0.00     0.031 C 
ATOM     29  C   UNL     1      -1.196   4.847  -5.872  1.00  0.00     0.031 C 
ENDBRANCH   1  27
TORSDOF 9
ENDMDL
MODEL 7
REMARK VINA RESULT:      -0.0      6.761      8.865
REMARK SMILES CC[C@H](CO)Nc1nc(NCc2ccccc2)c2ncn(C(C)C)c2n1
REMARK SMILES IDX 21 1 26 2 19 3 8 4 25 5 18 6 9 7 7 8 20 9 6 10 3 12 4 13
REMARK SMILES IDX 5 14 2 16 1 17 10 18 11 20 12 21 13 22 17 23 14 24 16 25
REMARK SMILES IDX 15 26 22 27 23 28 24 29
REMARK H PARENT 6 11 5 15 10 19
REMARK Flexibility Score: inf
ROOT
ATOM      1  N   UNL     1       2.654  -3.581  -5.352  1.00  0.00    -0.313 N 
ATOM      2  N   UNL     1       4.230  -4.427  -5.002  1.00  0.00    -0.193 NA
ATOM      3  N   UNL     1       3.045  -2.190  -4.645  1.00  0.00    -0.231 NA
ATOM      4  N   UNL     1       5.370  -3.454  -4.135  1.00  0.00    -0.193 NA
ATOM      5  C   UNL     1       3.575  -3.671  -4.991  1.00  0.00     0.167 A 
ATOM      6  C   UNL     1       3.819  -2.806  -4.551  1.00  0.00     0.150 A 
ATOM      7  C   UNL     1       4.716  -2.698  -4.123  1.00  0.00     0.160 A 
ATOM      8  C   UNL     1       5.127  -4.319  -4.574  1.00  0.00     0.227 A 
ATOM      9  C   UNL     1       2.326  -2.667  -5.139  1.00  0.00     0.202 A 
ENDROOT
BRANCH   8  10
ATOM     10  N   UNL     1       5.781  -5.075  -4.586  1.00  0.00    -0.349 N 
ATOM     11  H   UNL     1       5.886  -5.402  -4.070  1.00  0.00     0.164 HD
BRANCH  10  12
ATOM     12  C   UNL     1       6.265  -5.304  -5.430  1.00  0.00     0.107 C 
BRANCH  12  13
ATOM     13  C   UNL     1       7.017  -4.726  -5.748  1.00  0.00     0.180 C 
BRANCH  13  14
ATOM     14  O   UNL     1       6.943  -4.244  -6.621  1.00  0.00    -0.394 OA
ATOM     15  H   UNL     1       6.624  -3.714  -6.656  1.00  0.00     0.210 HD
ENDBRANCH  13  14
ENDBRANCH  12  13
BRANCH  12  16
ATOM     16  C   UNL     1       5.998  -6.111  -5.957  1.00  0.00     0.024 C 
ATOM     17  C   UNL     1       6.401  -7.002  -5.746  1.00  0.00     0.006 C 
ENDBRANCH  12  16
ENDBRANCH  10  12
ENDBRANCH   8  10
BRANCH   7  18
ATOM     18  N   UNL     1       4.959  -1.833  -3.684  1.00  0.00    -0.364 N 
ATOM     19  H   UNL     1       4.515  -1.469  -3.449  1.00  0.00     0.162 HD
BRANCH  18  20
ATOM     20  C   UNL     1       5.918  -1.555  -3.624  1.00  0.00     0.150 C 
BRANCH  20  21
ATOM     21  C   UNL     1       6.154  -0.646  -3.280  1.00  0.00    -0.029 A 
ATOM     22  C   UNL     1       6.208  -0.484  -2.294  1.00  0.00     0.005 A 
ATOM     23  C   UNL     1       6.336   0.099  -3.920  1.00  0.00     0.005 A 
ATOM     24  C   UNL     1       6.445   0.425  -1.950  1.00  0.00     0.000 A 
ATOM     25  C   UNL     1       6.572   1.008  -3.576  1.00  0.00     0.000 A 
ATOM     26  C   UNL     1       6.627   1.171  -2.591  1.00  0.00     0.000 A 
ENDBRANCH  20  21
ENDBRANCH  18  20
ENDBRANCH   7  18
BRANCH   1  27
ATOM     27  C   UNL     1       2.144  -4.287  -5.845  1.00  0.00     0.084 C 
ATOM     28  C   UNL     1       1.557  -4.923  -5.342  1.00  0.00     0.031 C 
ATOM     29  C   UNL     1       2.222  -4.357  -6.839  1.00  0.00     0.031 C 
ENDBRANCH   1  27
TORSDOF 9
ENDMDL
MODEL 8
REMARK VINA RESULT:      -0.0      5.458      7.552
REMARK SMILES CC[C@H](CO)Nc1nc(NCc2ccccc2)c2ncn(C(C)C)c2n1
REMARK SMILES IDX 21 1 26 2 19 3 8 4 25 5 18 6 9 7 7 8 20 9 6 10 3 12 4 13
REMARK SMILES IDX 5 14 2 16 1 17 10 18 11 20 12 21 13 22 17 23 14 24 16 25
REMARK SMILES IDX 15 26 22 27 23 28 24 29
REMARK H PARENT 6 11 5 15 10 19
REMARK Flexibility Score: inf
ROOT
ATOM      1  N   UNL     1       2.229  -7.076   2.796  1.00  0.00    -0.313 N 
ATOM      2  N   UNL     1       2.202  -7.568   4.550  1.00  0.00    -0.193 NA
ATOM      3  N   UNL     1       1.192  -5.854   2.943  1.00  0.00    -0.231 NA
ATOM      4  N   UNL     1       1.162  -6.594   5.535  1.00  0.00    -0.193 NA
ATOM      5  C   UNL     1       1.953  -7.024   3.749  1.00  0.00     0.167 A 
ATOM      6  C   UNL     1       1.308  -6.265   3.841  1.00  0.00     0.150 A 
ATOM      7  C   UNL     1       0.913  -6.050   4.734  1.00  0.00     0.160 A 
ATOM      8  C   UNL     1       1.806  -7.353   5.443  1.00  0.00     0.227 A 
ATOM      9  C   UNL     1       1.760  -6.354   2.298  1.00  0.00     0.202 A 
ENDROOT
BRANCH   8  10
ATOM     10  N   UNL     1       2.055  -7.897   6.244  1.00  0.00    -0.349 N 
ATOM     11  H   UNL     1       1.652  -8.306   6.479  1.00  0.00     0.164 HD
BRANCH  10  12
ATOM     12  C   UNL     1       2.954  -7.782   6.667  1.00  0.00     0.107 C 
BRANCH  12  13
ATOM     13  C   UNL     1       3.141  -6.978   7.232  1.00  0.00     0.180 C 
BRANCH  13  14
ATOM     14  O   UNL     1       3.840  -6.321   6.950  1.00  0.00    -0.394 OA
ATOM     15  H   UNL     1       3.705  -5.885   6.530  1.00  0.00     0.210 HD
ENDBRANCH  13  14
ENDBRANCH  12  13
BRANCH  12  16
ATOM     16  C   UNL     1       3.665  -8.470   6.525  1.00  0.00     0.024 C 
ATOM     17  C   UNL     1       3.731  -9.256   7.140  1.00  0.00     0.006 C 
ENDBRANCH  12  16
ENDBRANCH  10  12
ENDBRANCH   8  10
BRANCH   7  18
ATOM     18  N   UNL     1       0.268  -5.291   4.825  1.00  0.00    -0.364 N 
ATOM     19  H   UNL     1      -0.064  -5.105   4.336  1.00  0.00     0.162 HD
BRANCH  18  20
ATOM     20  C   UNL     1       0.160  -4.830   5.706  1.00  0.00     0.150 C 
BRANCH  20  21
ATOM     21  C   UNL     1      -0.402  -4.006   5.774  1.00  0.00    -0.029 A 
ATOM     22  C   UNL     1       0.027  -3.104   5.734  1.00  0.00     0.005 A 
ATOM     23  C   UNL     1      -1.393  -4.084   5.882  1.00  0.00     0.005 A 
ATOM     24  C   UNL     1      -0.536  -2.279   5.801  1.00  0.00     0.000 A 
ATOM     25  C   UNL     1      -1.955  -3.260   5.950  1.00  0.00     0.000 A 
ATOM     26  C   UNL     1      -1.527  -2.358   5.910  1.00  0.00     0.000 A 
ENDBRANCH  20  21
ENDBRANCH  18  20
ENDBRANCH   7  18
BRANCH   1  27
ATOM     27  C   UNL     1       2.868  -7.738   2.404  1.00  0.00     0.084 C 
ATOM     28  C   UNL     1       2.528  -8.604   2.036  1.00  0.00     0.031 C 
ATOM     29  C   UNL     1       3.847  -7.535   2.382  1.00  0.00     0.031 C 
ENDBRANCH   1  27
TORSDOF 9
ENDMDL
MODEL 9
REMARK VINA RESULT:      -0.0      6.118      9.893
REMARK SMILES CC[C@H](CO)Nc1nc(NCc2ccccc2)c2ncn(C(C)C)c2n1
REMARK SMILES IDX 21 1 26 2 19 3 8 4 25 5 18 6 9 7 7 8 20 9 6 10 3 12 4 13
REMARK SMILES IDX 5 14 2 16 1 17 10 18 11 20 12 21 13 22 17 23 14 24 16 25
REMARK SMILES IDX 15 26 22 27 23 28 24 29
REMARK H PARENT 6 11 5 15 10 19
REMARK Flexibility Score: inf
ROOT
ATOM      1  N   UNL     1      -0.311   2.573   5.727  1.00  0.00    -0.313 N 
ATOM      2  N   UNL     1      -0.665   1.361   4.414  1.00  0.00    -0.193 NA
ATOM      3  N   UNL     1      -1.840   2.790   6.178  1.00  0.00    -0.231 NA
ATOM      4  N   UNL     1      -2.349   0.997   4.232  1.00  0.00    -0.193 NA
ATOM      5  C   UNL     1      -0.882   1.995   5.155  1.00  0.00     0.167 A 
ATOM      6  C   UNL     1      -1.833   2.130   5.435  1.00  0.00     0.150 A 
ATOM      7  C   UNL     1      -2.566   1.631   4.974  1.00  0.00     0.160 A 
ATOM      8  C   UNL     1      -1.398   0.862   3.952  1.00  0.00     0.227 A 
ATOM      9  C   UNL     1      -0.902   3.064   6.359  1.00  0.00     0.202 A 
ENDROOT
BRANCH   8  10
ATOM     10  N   UNL     1      -1.181   0.227   3.210  1.00  0.00    -0.349 N 
ATOM     11  H   UNL     1      -1.301   0.384   2.622  1.00  0.00     0.164 HD
BRANCH  10  12
ATOM     12  C   UNL     1      -0.770  -0.661   3.416  1.00  0.00     0.107 C 
BRANCH  12  13
ATOM     13  C   UNL     1      -1.331  -1.395   3.797  1.00  0.00     0.180 C 
BRANCH  13  14
ATOM     14  O   UNL     1      -1.134  -1.752   4.710  1.00  0.00    -0.394 OA
ATOM     15  H   UNL     1      -1.412  -1.505   5.206  1.00  0.00     0.210 HD
ENDBRANCH  13  14
ENDBRANCH  12  13
BRANCH  12  16
ATOM     16  C   UNL     1       0.203  -0.814   3.240  1.00  0.00     0.024 C 
ATOM     17  C   UNL     1       0.504  -1.138   2.343  1.00  0.00     0.006 C 
ENDBRANCH  12  16
ENDBRANCH  10  12
ENDBRANCH   8  10
BRANCH   7  18
ATOM     18  N   UNL     1      -3.516   1.766   5.254  1.00  0.00    -0.364 N 
ATOM     19  H   UNL     1      -3.686   2.295   5.530  1.00  0.00     0.162 HD
BRANCH  18  20
ATOM     20  C   UNL     1      -4.193   1.049   5.088  1.00  0.00     0.150 C 
BRANCH  20  21
ATOM     21  C   UNL     1      -5.118   1.140   5.457  1.00  0.00    -0.029 A 
ATOM     22  C   UNL     1      -5.807   1.664   4.956  1.00  0.00     0.005 A 
ATOM     23  C   UNL     1      -5.355   0.706   6.326  1.00  0.00     0.005 A 
ATOM     24  C   UNL     1      -6.732   1.755   5.325  1.00  0.00     0.000 A 
ATOM     25  C   UNL     1      -6.280   0.797   6.695  1.00  0.00     0.000 A 
ATOM     26  C   UNL     1      -6.968   1.321   6.194  1.00  0.00     0.000 A 
ENDBRANCH  20  21
ENDBRANCH  18  20
ENDBRANCH   7  18
BRANCH   1  27
ATOM     27  C   UNL     1       0.686   2.648   5.677  1.00  0.00     0.084 C 
ATOM     28  C   UNL     1       1.106   3.337   5.087  1.00  0.00     0.031 C 
ATOM     29  C   UNL     1       1.261   2.034   6.217  1.00  0.00     0.031 C 
ENDBRANCH   1  27
TORSDOF 9
ENDMDL
